/*--------------------------------*- C++ -*----------------------------------*\
| =========                 |                                                 |
| \\      /  F ield         | OpenFOAM: The Open Source CFD Toolbox           |
|  \\    /   O peration     | Version:  2412                                  |
|   \\  /    A nd           | Website:  www.openfoam.com                      |
|    \\/     M anipulation  |                                                 |
\*---------------------------------------------------------------------------*/
FoamFile
{
    version     2.0;
    format      ascii;
    arch        "LSB;label=32;scalar=64";
    class       polyBoundaryMesh;
    location    "constant/polyMesh";
    object      boundary;
}
// * * * * * * * * * * * * * * * * * * * * * * * * * * * * * * * * * * * * * //

5
(
    chip
    {
        type            wall;
        inGroups        1(wall);
        nFaces          2308;
        startFace       2202330;
    }
    dbc_cu_top
    {
        type            wall;
        inGroups        1(wall);
        nFaces          39108;
        startFace       2204638;
    }
    dbc_ceramic
    {
        type            wall;
        inGroups        1(wall);
        nFaces          17036;
        startFace       2243746;
    }
    dbc_cu_bot
    {
        type            wall;
        inGroups        1(wall);
        nFaces          10480;
        startFace       2260782;
    }
    baseplate
    {
        type            wall;
        inGroups        1(wall);
        nFaces          60580;
        startFace       2271262;
    }
)

// ************************************************************************* //
