/*--------------------------------*- C++ -*----------------------------------*\
| =========                 |                                                 |
| \\      /  F ield         | OpenFOAM: The Open Source CFD Toolbox           |
|  \\    /   O peration     | Version:  2412                                  |
|   \\  /    A nd           | Website:  www.openfoam.com                      |
|    \\/     M anipulation  |                                                 |
\*---------------------------------------------------------------------------*/
FoamFile
{
    version     2.0;
    format      ascii;
    arch        "LSB;label=32;scalar=64";
    class       polyBoundaryMesh;
    location    "constant/dbc_cu_bot/polyMesh";
    object      boundary;
}
// * * * * * * * * * * * * * * * * * * * * * * * * * * * * * * * * * * * * * //

4
(
    dbc_ceramic
    {
        type            wall;
        inGroups        1(wall);
        nFaces          16;
        startFace       427480;
    }
    dbc_cu_bot
    {
        type            wall;
        inGroups        1(wall);
        nFaces          10480;
        startFace       427496;
    }
    dbc_cu_bot_to_baseplate
    {
        type            mappedWall;
        inGroups        1(wall);
        nFaces          28772;
        startFace       437976;
        sampleMode      nearestPatchFace;
        sampleRegion    baseplate;
        samplePatch     baseplate_to_dbc_cu_bot;
    }
    dbc_cu_bot_to_dbc_ceramic
    {
        type            mappedWall;
        inGroups        1(wall);
        nFaces          30036;
        startFace       466748;
        sampleMode      nearestPatchFace;
        sampleRegion    dbc_ceramic;
        samplePatch     dbc_ceramic_to_dbc_cu_bot;
    }
)

// ************************************************************************* //
