/*--------------------------------*- C++ -*----------------------------------*\
| =========                 |                                                 |
| \\      /  F ield         | OpenFOAM: The Open Source CFD Toolbox           |
|  \\    /   O peration     | Version:  v2412                                 |
|   \\  /    A nd           |                                                 |
|    \\/     M anipulation  |                                                 |
\*---------------------------------------------------------------------------*/
FoamFile
{
    version     2.0;
    format      ascii;
    class       dictionary;
    location    "system/baseplate";
    object      changeDictionaryDict;
}
T
{
    internalField   uniform 300;
    boundaryField
    {
        baseplate
        {
            type    zeroGradient;
            value   uniform 300;
        }
        baseplate_to_dbc_cu_bot
        {
            type            compressible::turbulentTemperatureRadCoupledMixed;
            value           uniform 300;
            Tnbr            T;
            kappaMethod     solidThermo;
        }
        baseplate_to_heatsink
        {
            type            compressible::turbulentTemperatureRadCoupledMixed;
            value           uniform 300;
            Tnbr            T;
            kappaMethod     solidThermo;
            thicknessLayers (1.0e-4);
            kappaLayers     (4.444e-5);
        }
    }
}
