/*--------------------------------*- C++ -*----------------------------------*\
| =========                 |                                                 |
| \\      /  F ield         | OpenFOAM: The Open Source CFD Toolbox           |
|  \\    /   O peration     | Version:  2412                                  |
|   \\  /    A nd           | Website:  www.openfoam.com                      |
|    \\/     M anipulation  |                                                 |
\*---------------------------------------------------------------------------*/
FoamFile
{
    version     2.0;
    format      ascii;
    arch        "LSB;label=32;scalar=64";
    class       polyBoundaryMesh;
    location    "constant/baseplate/polyMesh";
    object      boundary;
}
// * * * * * * * * * * * * * * * * * * * * * * * * * * * * * * * * * * * * * //

3
(
    baseplate
    {
        type            wall;
        inGroups        1(wall);
        nFaces          45428;
        startFace       1054245;
    }
    baseplate_to_heatsink
    {
        type            mappedWall;
        inGroups        1(wall);
        nFaces          57600;
        startFace       1099673;
        sampleMode      nearestPatchFace;
        sampleRegion    heatsink;
        samplePatch     heatsink_to_baseplate;
    }
    baseplate_to_dbc_cu_bot
    {
        type            mappedWall;
        inGroups        1(wall);
        nFaces          27508;
        startFace       1157273;
        sampleMode      nearestPatchFace;
        sampleRegion    dbc_cu_bot;
        samplePatch     dbc_cu_bot_to_baseplate;
    }
)

// ************************************************************************* //
