/*--------------------------------*- C++ -*----------------------------------*\
| =========                 |                                                 |
| \\      /  F ield         | OpenFOAM: The Open Source CFD Toolbox           |
|  \\    /   O peration     | Version:  2412                                  |
|   \\  /    A nd           | Website:  www.openfoam.com                      |
|    \\/     M anipulation  |                                                 |
\*---------------------------------------------------------------------------*/
FoamFile
{
    version     2.0;
    format      ascii;
    arch        "LSB;label=32;scalar=64";
    class       volScalarField;
    location    "0/dbc_ceramic";
    object      cellToRegion;
}
// * * * * * * * * * * * * * * * * * * * * * * * * * * * * * * * * * * * * * //

dimensions      [0 0 0 0 0 0 0];

internalField   uniform 2;

boundaryField
{
    dbc_ceramic
    {
        type            zeroGradient;
    }
    dbc_ceramic_to_dbc_cu_top
    {
        type            calculated;
        value           uniform 0;
    }
    dbc_ceramic_to_dbc_cu_bot
    {
        type            calculated;
        value           uniform 0;
    }
}


// ************************************************************************* //
