/*--------------------------------*- C++ -*----------------------------------*\
| =========                 |                                                 |
| \\      /  F ield         | OpenFOAM: The Open Source CFD Toolbox           |
|  \\    /   O peration     | Version:  2412                                  |
|   \\  /    A nd           | Website:  www.openfoam.com                      |
|    \\/     M anipulation  |                                                 |
\*---------------------------------------------------------------------------*/
FoamFile
{
    version     2.0;
    format      ascii;
    arch        "LSB;label=32;scalar=64";
    class       surfaceScalarField;
    location    "0/dbc_cu_bot";
    object      faceZone;
}
// * * * * * * * * * * * * * * * * * * * * * * * * * * * * * * * * * * * * * //

dimensions      [0 0 0 0 0 0 0];

internalField   uniform -1;

boundaryField
{
    dbc_ceramic
    {
        type            calculated;
        value           uniform -1;
    }
    dbc_cu_bot
    {
        type            calculated;
        value           uniform -1;
    }
    dbc_cu_bot_to_baseplate
    {
        type            calculated;
        value           uniform 0;
    }
    dbc_cu_bot_to_dbc_ceramic
    {
        type            calculated;
        value           uniform 0;
    }
}


// ************************************************************************* //
