/*--------------------------------*- C++ -*----------------------------------*\
| =========                 |                                                 |
| \\      /  F ield         | OpenFOAM: The Open Source CFD Toolbox           |
|  \\    /   O peration     | Version:  2412                                  |
|   \\  /    A nd           | Website:  www.openfoam.com                      |
|    \\/     M anipulation  |                                                 |
\*---------------------------------------------------------------------------*/
FoamFile
{
    version     2.0;
    format      ascii;
    arch        "LSB;label=32;scalar=64";
    class       extendedFeatureEdgeMesh;
    location    "constant/extendedFeatureEdgeMesh";
    object      solder.extendedFeatureEdgeMesh;
}
// * * * * * * * * * * * * * * * * * * * * * * * * * * * * * * * * * * * * * //

// points
8((-2.5 -2.5 0) (-2.5 -2.5 0.1) (-2.5 2.5 0) (-2.5 2.5 0.1) (2.5 -2.5 0.1) (2.5 -2.5 0) (2.5 2.5 0) (2.5 2.5 0.1))
// edges

12
(
(0 1)
(2 0)
(3 2)
(1 3)
(4 5)
(5 6)
(6 7)
(7 4)
(0 5)
(4 1)
(6 2)
(3 7)
)

// concaveStart mixedStart nonFeatureStart
8 8 8
// internalStart flatStart openStart multipleStart
12 12 12 12
// normals

12
(
(-1 0 0)
(0 -1 0)
(0 0 -1)
(-1 0 0)
(0 1 0)
(0 0 1)
(1 0 0)
(0 -1 0)
(0 0 -1)
(1 -0 0)
(0 1 0)
(0 0 1)
)

// normal volume types

12
(
0
0
0
0
0
0
0
0
0
0
0
0
)

// normalDirections

12
(
2(1 -1)
2(1 -1)
2(1 -1)
2(1 -1)
2(1 -1)
2(1 -1)
2(1 -1)
2(1 -1)
2(1 -1)
2(1 -1)
2(1 -1)
2(1 -1)
)

// edgeNormals

12
(
2(0 1)
2(0 2)
2(3 4)
2(3 5)
2(6 7)
2(6 8)
2(9 10)
2(9 11)
2(7 8)
2(1 11)
2(10 2)
2(4 5)
)

// featurePointNormals

8
(
3(0 1 2)
3(0 1 5)
3(0 2 4)
3(3 4 5)
3(6 7 11)
3(6 7 8)
3(6 8 10)
3(9 10 11)
)

// featurePointEdges

8
(
3(0 8 1)
3(3 9 0)
3(2 10 1)
3(2 11 3)
3(7 9 4)
3(4 8 5)
3(6 10 5)
3(6 11 7)
)

// regionEdges
0()


// ************************************************************************* //
