FoamFile
{
    version     2.0;
    format      ascii;
    arch        "LSB;label=32;scalar=64";
    class       volScalarField;
    location    "0/baseplate";
    object      T;
}
dimensions      [ 0 0 0 1 0 0 0 ];
internalField   uniform 300;
boundaryField
{
    ".*"
    {
        type            zeroGradient;
    }
    baseplate
    {
        type            zeroGradient;
    }
    baseplate_to_dbc_cu_bot
    {
        type            compressible::turbulentTemperatureRadCoupledMixed;
        value           uniform 300;
        Tnbr            T;
        kappaMethod     solidThermo;
    }
    baseplate_to_heatsink
    {
        type            compressible::turbulentTemperatureRadCoupledMixed;
        value           uniform 300;
        Tnbr            T;
        kappaMethod     solidThermo;
        thicknessLayers ( 0.0001 );
        kappaLayers     ( 0.4444 );
    }
}
