/*--------------------------------*- C++ -*----------------------------------*\
| =========                 |                                                 |
| \\      /  F ield         | OpenFOAM: The Open Source CFD Toolbox           |
|  \\    /   O peration     | Version:  2412                                  |
|   \\  /    A nd           | Website:  www.openfoam.com                      |
|    \\/     M anipulation  |                                                 |
\*---------------------------------------------------------------------------*/
FoamFile
{
    version     2.0;
    format      ascii;
    arch        "LSB;label=32;scalar=64";
    class       polyBoundaryMesh;
    location    "constant/dbc_ceramic/polyMesh";
    object      boundary;
}
// * * * * * * * * * * * * * * * * * * * * * * * * * * * * * * * * * * * * * //

3
(
    dbc_ceramic
    {
        type            wall;
        inGroups        1(wall);
        nFaces          17020;
        startFace       540140;
    }
    dbc_ceramic_to_dbc_cu_top
    {
        type            mappedWall;
        inGroups        1(wall);
        nFaces          27508;
        startFace       557160;
        sampleMode      nearestPatchFace;
        sampleRegion    dbc_cu_top;
        samplePatch     dbc_cu_top_to_dbc_ceramic;
    }
    dbc_ceramic_to_dbc_cu_bot
    {
        type            mappedWall;
        inGroups        1(wall);
        nFaces          30036;
        startFace       584668;
        sampleMode      nearestPatchFace;
        sampleRegion    dbc_cu_bot;
        samplePatch     dbc_cu_bot_to_dbc_ceramic;
    }
)

// ************************************************************************* //
