/*--------------------------------*- C++ -*----------------------------------*\
| =========                 |                                                 |
| \\      /  F ield         | OpenFOAM: The Open Source CFD Toolbox           |
|  \\    /   O peration     | Version:  v2412                                 |
|   \\  /    A nd           |                                                 |
|    \\/     M anipulation  |                                                 |
\*---------------------------------------------------------------------------*/
FoamFile
{
    version     2.0;
    format      ascii;
    class       dictionary;
    location    "system/dbc_ceramic";
    object      changeDictionaryDict;
}
// * * * * * * * * * * * * * * * * * * * * * * * * * * * * * * * * * * * * * //

T
{
    internalField   uniform 300;

    boundaryField
    {
        dbc_ceramic
        {
            type            zeroGradient;
        }
        dbc_ceramic_to_dbc_cu_top
        {
            type            compressible::turbulentTemperatureRadCoupledMixed;
            value           uniform 300;
            Tnbr            T;
            kappaMethod     solidThermo;
        }
        dbc_ceramic_to_dbc_cu_bot
        {
            type            compressible::turbulentTemperatureRadCoupledMixed;
            value           uniform 300;
            Tnbr            T;
            kappaMethod     solidThermo;
        }

    }
}


// ************************************************************************* //
